7
Coordinates from ORCA-job geo_opt
  N   0.90393004247889      0.07881506389362      0.13512737036702
  C   -0.55137447637568      0.05857431864416      0.10086902154109
  H   -0.94094058095660      1.08975752807356      0.12222183622818
  H   -0.94058908734062     -0.44167809558667      1.00335009824039
  H   -1.01505061255159     -0.44570667907176     -0.77532321697358
  H   1.27254997363062     -0.87296773667230      0.11585773619078
  H   1.27147474111498      0.53315268299855     -0.70210284559388
